<?xml version="1.0" encoding="UTF-8"?>

<!-- generated on Fri Mar  4 14:38:42 2022 by Eclipse SUMO polyconvert Version 1.8.0
<configuration xmlns:xsi="http://www.w3.org/2001/XMLSchema-instance" xsi:noNamespaceSchemaLocation="http://sumo.dlr.de/xsd/polyconvertConfiguration.xsd">

    <input>
        <net-file value="osm.net.xml"/>
        <osm-files value="osm_bbox.osm.xml"/>
        <osm.keep-full-type value="true"/>
        <type-file value="/home/veins/src/sumo/data/typemap/osmPolyconvert.typ.xml"/>
    </input>

    <output>
        <output-file value="osm.poly.xml"/>
    </output>

    <processing>
        <poi-layer-offset value="5"/>
    </processing>

    <report>
        <verbose value="true"/>
    </report>

</configuration>
-->

<additional xmlns:xsi="http://www.w3.org/2001/XMLSchema-instance" xsi:noNamespaceSchemaLocation="http://sumo.dlr.de/xsd/additional_file.xsd">
    <location netOffset="-776579.24,-338881.04" convBoundary="-5377.45,-9859.13,14568.29,9107.52" origBoundary="101.439834,2.973977,101.619476,3.145025" projParameter="+proj=utm +zone=47 +ellps=WGS84 +datum=WGS84 +units=m +no_defs"/>

    <poly id="181954216" type="leisure.pitch" color="207,245,201" fill="1" layer="-2.00" shape="1122.694997,247.514435 1262.305575,250.960284 1259.237935,373.906465 1119.627507,370.460502 1122.694997,247.514435"/>
    <poly id="181954216#1" type="sport.rugby_league" color="79,230,125" fill="1" layer="-2.00" shape="1122.694997,247.514435 1262.305575,250.960284 1259.237935,373.906465 1119.627507,370.460502 1122.694997,247.514435"/>
    <poly id="312016301" type="leisure.pitch" color="207,245,201" fill="1" layer="-2.00" shape="1010.389657,244.143500 1082.722177,242.398163 1081.509151,347.568827 1010.094991,346.627726 1010.389657,244.143500"/>
    <poly id="312016301#1" type="sport.soccer" color="79,230,125" fill="1" layer="-2.00" shape="1010.389657,244.143500 1082.722177,242.398163 1081.509151,347.568827 1010.094991,346.627726 1010.389657,244.143500"/>
    <poly id="312016449" type="leisure.track" color="207,245,201" fill="1" layer="-2.00" shape="1010.094991,346.627726 1015.754683,361.599325 1026.310488,370.818056 1041.069292,375.798058 1056.755869,374.031246 1066.881613,367.361212 1076.945350,358.666339 1081.509151,347.568827 1082.722177,242.398163 1076.513559,229.106993 1062.489393,219.105701 1046.655084,217.442375 1029.337053,222.458187 1016.174958,233.878628 1010.389657,244.143500 1010.094991,346.627726"/>
    <poly id="312016449#1" type="sport.running" color="79,230,125" fill="1" layer="-2.00" shape="1010.094991,346.627726 1015.754683,361.599325 1026.310488,370.818056 1041.069292,375.798058 1056.755869,374.031246 1066.881613,367.361212 1076.945350,358.666339 1081.509151,347.568827 1082.722177,242.398163 1076.513559,229.106993 1062.489393,219.105701 1046.655084,217.442375 1029.337053,222.458187 1016.174958,233.878628 1010.389657,244.143500 1010.094991,346.627726"/>
    <poly id="312016450" type="leisure.track" color="207,245,201" fill="1" layer="-2.00" shape="1090.194864,247.814783 1087.190726,357.926839 1076.777441,373.425198 1063.628297,384.060117 1049.294529,387.589245 1033.790118,387.553065 1017.927246,383.842836 1006.368092,375.628580 997.920457,363.814753 995.957555,351.816906 998.327711,241.670247 1007.545374,228.536766 1017.471614,221.567530 1030.617994,212.116426 1040.998110,210.835095 1059.260582,210.999392 1068.434023,216.829339 1080.701750,226.450361 1090.194864,247.814783"/>
    <poly id="312016450#1" type="sport.running" color="79,230,125" fill="1" layer="-2.00" shape="1090.194864,247.814783 1087.190726,357.926839 1076.777441,373.425198 1063.628297,384.060117 1049.294529,387.589245 1033.790118,387.553065 1017.927246,383.842836 1006.368092,375.628580 997.920457,363.814753 995.957555,351.816906 998.327711,241.670247 1007.545374,228.536766 1017.471614,221.567530 1030.617994,212.116426 1040.998110,210.835095 1059.260582,210.999392 1068.434023,216.829339 1080.701750,226.450361 1090.194864,247.814783"/>
    <poly id="312016521" type="building.yes" color="255,230,230" fill="1" layer="-1.00" shape="1097.961126,370.509509 1115.509536,371.623665 1118.376060,229.934871 1100.319745,231.983824 1099.054263,221.392713 1081.303104,211.825280 1071.783039,206.780061 1061.654578,205.074723 1029.839977,207.113728 1018.896525,211.491639 1007.835375,218.646316 996.615164,232.007469 990.355763,240.489946 989.563974,265.238042 977.546109,267.710456 978.546963,325.001656 992.329414,324.181885 992.796589,357.540632 994.986812,372.216473 1004.963949,381.566618 1014.949036,387.509103 1029.264470,391.835299 1068.519498,389.946465 1079.424627,382.924207 1097.961126,370.509509"/>
    <poly id="312016521#1" type="leisure.stadium" color="207,245,201" fill="1" layer="-2.00" shape="1097.961126,370.509509 1115.509536,371.623665 1118.376060,229.934871 1100.319745,231.983824 1099.054263,221.392713 1081.303104,211.825280 1071.783039,206.780061 1061.654578,205.074723 1029.839977,207.113728 1018.896525,211.491639 1007.835375,218.646316 996.615164,232.007469 990.355763,240.489946 989.563974,265.238042 977.546109,267.710456 978.546963,325.001656 992.329414,324.181885 992.796589,357.540632 994.986812,372.216473 1004.963949,381.566618 1014.949036,387.509103 1029.264470,391.835299 1068.519498,389.946465 1079.424627,382.924207 1097.961126,370.509509"/>
    <poly id="312020601" type="building.yes" color="255,230,230" fill="1" layer="-1.00" shape="919.782224,665.853825 940.376328,677.242396 928.771869,697.982236 939.746507,704.048746 951.663734,682.734313 970.513870,693.167327 944.937057,738.912140 927.486522,729.256867 924.415051,734.759516 868.453348,703.804863 876.628969,689.186419 898.778159,701.441595 902.664907,694.502544 898.099543,691.980383 902.321377,684.433599 907.719823,687.422388 919.782224,665.853825"/>
    <poly id="312020673" type="amenity.place_of_worship" color="237,199,199" fill="1" layer="-1.00" shape="889.933898,668.970552 888.693273,666.799134 887.223205,667.625494 884.010883,661.997539 886.305105,660.697355 884.366646,657.296215 900.470640,648.217156 906.839725,659.450810 889.933898,668.970552"/>
    <poly id="312020673#1" type="building.mosque" color="255,230,230" fill="1" layer="-1.00" shape="889.933898,668.970552 888.693273,666.799134 887.223205,667.625494 884.010883,661.997539 886.305105,660.697355 884.366646,657.296215 900.470640,648.217156 906.839725,659.450810 889.933898,668.970552"/>
    <poly id="312020717" type="building.yes" color="255,230,230" fill="1" layer="-1.00" shape="753.497555,702.142537 763.104902,684.053378 773.380362,689.465464 763.784161,707.543586 753.497555,702.142537"/>
    <poly id="312020718" type="building.yes" color="255,230,230" fill="1" layer="-1.00" shape="777.124104,715.208794 786.259521,699.176415 800.377348,707.131102 791.241928,723.163481 777.124104,715.208794"/>
    <poly id="312020725" type="building.yes" color="255,230,230" fill="1" layer="-1.00" shape="792.721184,642.135038 799.578509,630.025019 780.617608,619.392645 773.760286,631.502664 792.721184,642.135038"/>
    <poly id="312020726" type="building.yes" color="255,230,230" fill="1" layer="-1.00" shape="817.465239,652.946871 832.116373,661.146209 839.487494,648.108022 824.836358,639.908684 817.465239,652.946871"/>
    <poly id="312020951" type="building.yes" color="255,230,230" fill="1" layer="-1.00" shape="867.194506,633.192174 872.287820,623.954648 852.593107,613.209906 847.723170,622.049654 855.676602,626.383131 852.560287,632.040570 828.089068,618.695737 830.188950,614.883596 838.109068,619.194865 845.000721,606.675559 821.684733,593.964070 814.279295,607.411543 823.343555,612.345057 821.545264,615.604708 790.042590,598.426444 792.164817,594.570099 803.039701,600.492520 809.585088,588.603048 789.257178,577.524933 783.180940,588.552516 788.790531,591.619234 785.741238,597.155127 777.343483,592.577217 751.229129,639.947164 779.565958,655.403134 810.202188,672.103638 843.248859,690.126386 850.051124,677.783897 860.103740,659.540877 861.170130,660.118688 864.833732,653.477840 871.200426,641.908805 857.670720,634.530807 860.440775,629.503201 867.194506,633.192174"/>
    <poly id="312021402" type="building.yes" color="255,230,230" fill="1" layer="-1.00" shape="733.316528,647.185412 772.361602,668.474900 779.565958,655.403134 810.202188,672.103638 806.795459,678.291465 803.466947,684.324580 846.688663,707.891956 843.304304,714.024515 846.481225,715.757897 850.278861,708.873958 860.309503,714.340805 848.313358,736.119730 838.949199,731.019547 844.545153,720.864895 841.423792,719.153771 837.268696,726.700708 815.241291,714.689234 805.590838,732.180843 831.506073,746.314595 834.331972,741.187547 847.695033,748.476651 836.637157,768.542861 823.551793,761.409299 826.165465,756.668992 820.211510,753.424439 818.279235,756.905054 705.676233,695.503280 712.411434,683.293405 737.215880,696.816014 749.524732,674.473563 725.497851,661.373196 733.316528,647.185412"/>
    <poly id="312021478" type="building.yes" color="255,230,230" fill="1" layer="-1.00" shape="669.122597,717.114273 665.241005,721.851622 668.812000,726.296566 665.221649,730.149483 683.383962,749.354486 692.345326,741.177060 669.122597,717.114273"/>
    <poly id="312021874" type="building.yes" color="255,230,230" fill="1" layer="-1.00" shape="416.725090,435.669798 425.499805,435.988955 425.939383,423.941438 442.599119,424.544490 443.323639,404.763999 450.719308,405.035689 451.740147,377.411612 442.509467,377.069267 443.210062,358.007871 407.321550,356.707294 406.620704,375.879323 430.353597,376.742240 429.320920,404.676074 401.751159,403.682518 401.026208,423.651088 417.141005,424.230739 416.725090,435.669798"/>
    <poly id="312025813" type="building.yes" color="255,230,230" fill="1" layer="-1.00" shape="977.716852,723.565613 989.228181,733.184897 1001.853381,718.289181 990.330926,708.669870 977.716852,723.565613"/>
    <poly id="312025814" type="building.yes" color="255,230,230" fill="1" layer="-1.00" shape="997.268325,733.723678 1005.522773,737.748089 1010.607436,727.459473 1002.352987,723.435062 997.268325,733.723678"/>
    <poly id="312025815" type="building.yes" color="255,230,230" fill="1" layer="-1.00" shape="1016.438163,726.322445 1031.063624,731.224723 1025.128072,748.669698 1010.502613,743.767419 1016.438163,726.322445"/>
    <poly id="312025885" type="building.yes" color="255,230,230" fill="1" layer="-1.00" shape="963.720409,654.095904 954.466726,654.074300 940.184954,640.111513 951.569956,622.856283 964.996539,622.002515 979.273949,637.835094 963.720409,654.095904"/>
    <poly id="312025961" type="leisure.pitch" color="207,245,201" fill="1" layer="-2.00" shape="1086.397350,540.567964 1091.795782,572.145898 1073.360096,574.736058 1068.661792,543.403170 1086.397350,540.567964"/>
    <poly id="312025961#1" type="sport.tennis" color="79,230,125" fill="1" layer="-2.00" shape="1086.397350,540.567964 1091.795782,572.145898 1073.360096,574.736058 1068.661792,543.403170 1086.397350,540.567964"/>
    <poly id="312025962" type="leisure.pitch" color="207,245,201" fill="1" layer="-2.00" shape="1068.661792,543.403170 1049.858606,546.191629 1054.556914,577.524513 1073.360096,574.736058 1068.661792,543.403170"/>
    <poly id="312025962#1" type="sport.tennis" color="79,230,125" fill="1" layer="-2.00" shape="1068.661792,543.403170 1049.858606,546.191629 1054.556914,577.524513 1073.360096,574.736058 1068.661792,543.403170"/>
    <poly id="312026191" type="leisure.pitch" color="207,245,201" fill="1" layer="-2.00" shape="1095.406541,435.703154 1101.661174,481.677229 1075.983578,484.814753 1069.783051,439.482520 1095.406541,435.703154"/>
    <poly id="312026191#1" type="sport.team_handball" color="79,230,125" fill="1" layer="-2.00" shape="1095.406541,435.703154 1101.661174,481.677229 1075.983578,484.814753 1069.783051,439.482520 1095.406541,435.703154"/>
    <poly id="312026192" type="leisure.pitch" color="207,245,201" fill="1" layer="-2.00" shape="1069.783051,439.482520 1044.605360,442.875694 1050.805869,488.218981 1075.983578,484.814753 1069.783051,439.482520"/>
    <poly id="312026192#1" type="sport.team_handball" color="79,230,125" fill="1" layer="-2.00" shape="1069.783051,439.482520 1044.605360,442.875694 1050.805869,488.218981 1075.983578,484.814753 1069.783051,439.482520"/>
    <poly id="312026250" type="leisure.pitch" color="207,245,201" fill="1" layer="-2.00" shape="1040.097273,501.581308 1044.570334,534.119627 1010.625456,538.731481 1008.459979,522.993559 1006.152414,506.182107 1040.097273,501.581308"/>
    <poly id="312026250#1" type="sport.basketball" color="79,230,125" fill="1" layer="-2.00" shape="1040.097273,501.581308 1044.570334,534.119627 1010.625456,538.731481 1008.459979,522.993559 1006.152414,506.182107 1040.097273,501.581308"/>
    <poly id="312026337" type="building.yes" color="255,230,230" fill="1" layer="-1.00" shape="799.850393,246.319052 806.641398,253.117041 804.467714,255.191985 821.101452,271.749135 823.854396,269.288305 832.236214,275.946175 826.268968,278.388448 824.096967,284.512779 818.093603,292.907339 809.478477,286.138287 811.855044,282.913172 794.487602,266.199419 791.421835,264.488436 785.931359,258.025396 799.850393,246.319052"/>
    <poly id="312026874" type="building.yes" color="255,230,230" fill="1" layer="-1.00" shape="913.494410,295.608066 917.757664,298.915047 921.932094,302.155439 916.577524,308.958311 926.003307,316.271398 919.644742,324.355340 905.411724,313.302511 893.288112,303.892061 899.479324,296.029006 907.972517,302.620762 913.494410,295.608066"/>
    <poly id="312026915" type="leisure.pitch" color="207,245,201" fill="1" layer="-2.00" shape="961.690035,551.893939 900.751417,566.035213 877.938568,466.373767 940.232398,452.976885 961.690035,551.893939"/>
    <poly id="312026915#1" type="sport.hockey" color="79,230,125" fill="1" layer="-2.00" shape="961.690035,551.893939 900.751417,566.035213 877.938568,466.373767 940.232398,452.976885 961.690035,551.893939"/>
    <poly id="312027794" type="building.yes" color="255,230,230" fill="1" layer="-1.00" shape="520.312213,380.768757 547.814914,401.013307 552.445088,394.817264 517.203477,368.856799 527.356432,355.249765 559.433632,378.879448 557.057154,382.071369 561.698299,385.489852 570.311578,373.948175 574.608528,377.111387 579.194113,370.959494 614.202545,396.753488 618.319531,391.231144 623.948852,395.382149 607.971833,416.808831 584.810498,399.760764 589.184065,393.907103 574.827610,383.329791 572.741236,386.124089 570.020934,384.126256 565.156444,390.642606 568.331958,392.984479 566.078235,395.999665 600.820186,421.593887 591.258576,434.394633 559.048138,410.676103 561.156808,407.859729 554.483779,402.942891 544.096505,416.870229 511.353097,392.763246 520.312213,380.768757"/>
    <poly id="312027794#1" type="tourism.hostel" color="207,245,201" fill="1" layer="-2.00" shape="520.312213,380.768757 547.814914,401.013307 552.445088,394.817264 517.203477,368.856799 527.356432,355.249765 559.433632,378.879448 557.057154,382.071369 561.698299,385.489852 570.311578,373.948175 574.608528,377.111387 579.194113,370.959494 614.202545,396.753488 618.319531,391.231144 623.948852,395.382149 607.971833,416.808831 584.810498,399.760764 589.184065,393.907103 574.827610,383.329791 572.741236,386.124089 570.020934,384.126256 565.156444,390.642606 568.331958,392.984479 566.078235,395.999665 600.820186,421.593887 591.258576,434.394633 559.048138,410.676103 561.156808,407.859729 554.483779,402.942891 544.096505,416.870229 511.353097,392.763246 520.312213,380.768757"/>
    <poly id="312028066" type="building.yes" color="255,230,230" fill="1" layer="-1.00" shape="594.514256,454.837186 658.829203,466.582011 651.228789,501.658904 587.339010,488.841864 594.514256,454.837186"/>
    <poly id="312175227" type="building.yes" color="255,230,230" fill="1" layer="-1.00" shape="957.389190,436.011705 966.821493,488.188927 1027.643276,476.481435 1019.390066,433.788702 1007.599831,424.511768 957.389190,436.011705"/>
    <poly id="312175227#1" type="leisure.sports_centre" color="207,245,201" fill="1" layer="-2.00" shape="957.389190,436.011705 966.821493,488.188927 1027.643276,476.481435 1019.390066,433.788702 1007.599831,424.511768 957.389190,436.011705"/>
    <poly id="312175820" type="building.yes" color="255,230,230" fill="1" layer="-1.00" shape="1146.763431,566.841890 1151.501664,581.070084 1209.926941,600.181182 1226.649167,593.106154 1220.901067,577.913029 1166.040456,561.189000 1146.763431,566.841890"/>
    <poly id="312176004" type="building.yes" color="255,230,230" fill="1" layer="-1.00" shape="1147.588138,723.243277 1159.530582,719.719667 1178.591394,730.429824 1170.185986,752.925245 1157.053440,756.457134 1138.169918,746.035055 1147.588138,723.243277"/>
    <poly id="312176016" type="building.yes" color="255,230,230" fill="1" layer="-1.00" shape="1078.590378,630.687383 1092.888129,642.570222 1080.926280,654.402792 1014.292444,649.744168 1001.024034,635.252667 1017.751775,625.798897 1031.607532,626.915513 1078.590378,630.687383"/>
    <poly id="312176033" type="building.yes" color="255,230,230" fill="1" layer="-1.00" shape="1091.606635,676.942790 1079.653298,689.892832 1017.591359,694.494292 1006.874841,682.675146 1020.209671,668.721514 1077.320013,665.059975 1091.606635,676.942790"/>
    <poly id="312176058" type="building.yes" color="255,230,230" fill="1" layer="-1.00" shape="1144.117424,675.881624 1157.441218,666.663323 1216.926274,670.121493 1229.012892,681.058763 1218.061072,693.778801 1152.442660,687.695206 1144.117424,675.881624"/>
    <poly id="312176963" type="man_made.reservoir_covered" color="255,230,230" fill="1" layer="-1.00" shape="722.831276,555.275434 718.550104,554.889278 714.365859,555.864206 710.422845,558.322256 707.544803,561.966625 706.077551,566.355563 706.189111,570.980524 707.869624,575.299356 710.931199,578.802681 714.996687,581.058130 719.588377,581.832246 724.172685,581.002082 727.925745,578.919762 730.824872,575.773317 732.602359,571.894040 733.057156,567.646571 732.165984,563.473410 729.994624,559.784074 726.775764,556.955278 722.831276,555.275434"/>
    <poly id="312177000" type="leisure.pitch" color="207,245,201" fill="1" layer="-2.00" shape="850.080999,417.074482 769.416834,438.449900 799.883256,551.837252 880.547383,530.461912 850.080999,417.074482"/>
    <poly id="312177000#1" type="sport.soccer" color="79,230,125" fill="1" layer="-2.00" shape="850.080999,417.074482 769.416834,438.449900 799.883256,551.837252 880.547383,530.461912 850.080999,417.074482"/>
    <poly id="351639478" type="building.yes" color="255,230,230" fill="1" layer="-1.00" shape="893.462831,219.408590 906.620402,219.461390 906.441074,262.986327 893.283507,262.933523 893.462831,219.408590"/>
    <poly id="351639481" type="building.yes" color="255,230,230" fill="1" layer="-1.00" shape="550.068966,268.915999 570.553072,260.710054 566.551593,245.288769 544.988348,253.613906 550.068966,268.915999"/>
    <poly id="351639487" type="building.yes" color="255,230,230" fill="1" layer="-1.00" shape="688.225940,456.792620 732.495117,460.480517 733.901995,443.821593 689.632811,440.133701 688.225940,456.792620"/>
    <poly id="351639488" type="building.yes" color="255,230,230" fill="1" layer="-1.00" shape="631.482345,436.745393 680.665522,441.307698 682.102739,425.943324 632.919556,421.381024 631.482345,436.745393"/>
    <poly id="351639489" type="building.yes" color="255,230,230" fill="1" layer="-1.00" shape="694.733792,432.367685 736.783051,434.114223 737.430340,418.858641 695.381076,417.112107 694.733792,432.367685"/>
    <poly id="351639490" type="building.yes" color="255,230,230" fill="1" layer="-1.00" shape="634.043740,416.250006 650.326659,416.287951 650.378894,393.872665 634.095972,393.834723 634.043740,416.250006"/>
    <poly id="351639491" type="building.yes" color="255,230,230" fill="1" layer="-1.00" shape="492.638768,701.135877 528.063621,700.908671 527.932144,680.971280 492.507286,681.198491 492.638768,701.135877"/>
    <poly id="351639492" type="building.yes" color="255,230,230" fill="1" layer="-1.00" shape="473.830575,667.944709 492.493356,668.087781 492.586965,675.644618 542.264811,677.873619 543.054071,654.198786 516.304192,654.578985 511.988649,649.855720 494.772210,649.516868 494.836545,621.912682 473.203077,622.216310 473.830575,667.944709"/>
    <poly id="351639494" type="building.yes" color="255,230,230" fill="1" layer="-1.00" shape="572.813387,703.535569 598.099111,701.448140 596.962473,688.069270 571.687844,690.167791 572.813387,703.535569"/>
    <poly id="351639495" type="amenity.parking" color="184,184,179" fill="1" layer="-1.00" shape="377.330456,712.462062 452.234069,709.660445 449.093151,597.023041 375.927416,598.589615 377.330456,712.462062"/>
    <poly id="351639496" type="amenity.clinic" color="237,199,199" fill="1" layer="-1.00" shape="581.332114,608.516798 593.532306,608.910347 593.388677,613.269177 604.410020,613.615723 604.590034,607.962505 615.288835,608.308300 615.780053,593.207261 625.767113,593.518205 626.618204,567.177110 599.882300,566.318186 599.954527,563.961750 607.650545,564.212031 608.153680,548.768040 599.111952,548.481432 578.492845,547.813796 577.761114,570.670043 582.554444,570.825046 581.332114,608.516798"/>
    <poly id="351639496#1" type="building.yes" color="255,230,230" fill="1" layer="-1.00" shape="581.332114,608.516798 593.532306,608.910347 593.388677,613.269177 604.410020,613.615723 604.590034,607.962505 615.288835,608.308300 615.780053,593.207261 625.767113,593.518205 626.618204,567.177110 599.882300,566.318186 599.954527,563.961750 607.650545,564.212031 608.153680,548.768040 599.111952,548.481432 578.492845,547.813796 577.761114,570.670043 582.554444,570.825046 581.332114,608.516798"/>
    <poly id="351639497" type="leisure.pitch" color="207,245,201" fill="1" layer="-2.00" shape="1017.696187,582.915083 1040.795023,579.074519 1035.737857,549.002086 1012.639043,552.831592 1017.696187,582.915083"/>
    <poly id="351639498" type="leisure.pitch" color="207,245,201" fill="1" layer="-2.00" shape="1050.720644,534.255689 1081.428421,529.868628 1076.393377,495.083015 1045.685594,499.470083 1050.720644,534.255689"/>
    <poly id="351639498#1" type="sport.tennis" color="79,230,125" fill="1" layer="-2.00" shape="1050.720644,534.255689 1081.428421,529.868628 1076.393377,495.083015 1045.685594,499.470083 1050.720644,534.255689"/>
    <poly id="351639500" type="building.yes" color="255,230,230" fill="1" layer="-1.00" shape="1032.614507,710.085226 1087.730845,731.556249 1097.063459,707.314902 1032.614507,710.085226"/>
    <poly id="374078117" type="building.yes" color="255,230,230" fill="1" layer="-1.00" shape="449.803744,258.459563 492.191950,253.159071 513.630584,279.242251 518.977917,285.085357 524.058959,290.651248 535.112215,282.080363 538.518620,285.573412 544.814550,280.487631 534.857036,272.255057 527.252318,275.777786 504.480077,244.458290 502.376849,240.160615 500.149860,236.471165 499.720188,201.264956 457.947674,209.631583 460.590587,220.989253 484.001133,217.005434 488.627495,241.113292 458.299733,244.738026 457.507097,241.228938 451.870500,244.977530 449.803744,258.459563"/>
    <poly id="374078121" type="building.yes" color="255,230,230" fill="1" layer="-1.00" shape="574.089880,279.847717 621.008618,277.722090 621.315597,284.405383 626.643735,284.163325 626.887356,289.397104 654.962969,288.123776 654.645514,281.163860 661.230620,280.858348 660.955746,274.717257 709.287220,272.517506 708.376204,252.987639 651.001321,255.608887 650.778990,250.784520 606.741197,252.784088 607.132621,261.414818 573.317301,262.951392 574.089880,279.847717"/>
    <poly id="374080302" type="landuse.residential" color="235,235,227" fill="1" layer="-3.00" shape="1499.711009,51.401277 1605.634660,44.390710 1623.394543,40.725774 1636.996352,31.574471 1642.605511,25.325379 1660.335569,1.103557 1672.300973,-12.200552 1685.291427,-21.508180 1698.591912,-30.217631 1714.568387,-36.995703 1722.480530,-38.758515 1768.117558,-39.537002 2056.520372,-5.670817 2304.360977,27.802484 2263.435430,177.645936 2199.013434,424.941233 2148.018651,609.435447 2133.151322,650.735651 2120.543881,681.674192 2102.725635,710.232818 2087.458246,732.413502 2076.089868,747.212586 2068.459652,756.820360 2059.336249,767.619544 2050.964319,775.743005 2045.136234,780.475788 2038.267532,783.126103 2028.564724,784.884655 2011.109348,786.768863 1987.245802,789.379339 1943.823385,794.466558 1897.708719,804.581588 1883.675911,807.801509 1870.240208,812.516465 1848.592489,823.573960 1805.716579,851.775114 1524.155713,1079.586108 1496.568075,1076.711251 1486.427387,1075.503660 1478.973430,1076.371318 1473.741144,1078.428021 1467.912773,1083.304632 1388.758664,1148.484996 1322.053582,1202.829716 1306.968801,1213.614915 1300.841883,1217.749542 1291.291067,1221.134868 1284.119701,1224.824492 1276.199005,1230.282590 1269.924030,1235.899435 1191.825458,1159.087925 1136.914144,1216.469657 1110.605829,1242.043179 1095.680591,1246.455947 1080.755356,1250.868716 1063.888947,1253.053099 1045.842875,1250.787034 1034.961574,1247.641556 1023.496312,1242.138103 1014.713587,1235.744750 1006.370500,1226.840921 954.936894,1152.636766 884.942777,1044.013794 846.750379,981.546345 793.380140,903.045120 736.603543,816.238117 722.864426,793.757440 717.143374,786.032565 707.612214,776.240919 662.010305,728.869646 664.250897,726.717417 641.263766,701.781146 617.993756,702.755816 371.600707,722.782350 371.130990,604.541859 371.082710,596.620028 371.319925,523.422130 371.340480,485.937845 369.843264,421.996355 369.915691,390.884971 370.179360,344.505916 371.535398,335.326075 390.871286,294.777802 394.813987,268.554580 392.463728,250.924391 417.956843,193.197201 444.734740,161.694329 464.016503,144.413195 474.777822,137.025450 490.895551,131.586347 505.522930,126.132711 551.934795,117.201552 596.856302,108.266936 671.169938,91.556477 705.801692,83.339209 732.688780,67.093662 747.763486,60.612142 760.750063,57.677266 777.152968,58.755472 792.355795,64.123673 805.187066,65.791014 819.356823,65.824021 843.522310,62.472637 914.559300,48.708705 911.444914,39.219692 911.620320,30.767286 915.218266,23.661586 924.768753,20.431054 938.642016,18.836987 1027.555854,13.257777 1177.318126,13.308212 1224.453346,13.871764 1254.420345,17.194456 1265.740132,23.151124 1274.237642,27.906306 1284.671800,32.079619 1297.636941,33.592434 1309.427610,33.177388 1386.705297,28.622364 1387.689593,54.846173 1470.321704,53.113949 1499.711009,51.401277"/>
    <poly id="374082001" type="amenity.parking" color="184,184,179" fill="1" layer="-1.00" shape="376.930104,483.251281 408.138266,483.622680 408.236347,474.937782 463.712627,475.586988 464.280679,427.482650 433.339397,427.122933 433.103840,447.081583 404.776234,446.750085 405.012661,426.415270 377.608171,426.096995 376.930104,483.251281"/>
    <poly id="374082003" type="amenity.parking" color="184,184,179" fill="1" layer="-1.00" shape="489.965775,358.990785 418.714960,326.230767 390.871286,294.777802 394.813987,268.554580 392.463728,250.924391 407.923730,241.345880 418.751075,239.036604 424.987104,254.905623 440.785259,286.408003 508.748586,326.716983 489.965775,358.990785"/>
    <poly id="374083709" type="waterway.drain" color="181,209,209" fill="0" layer="-4.00" shape="420.509133,506.243885 428.617073,496.769980 464.731510,501.334963"/>
    <poly id="374083710" type="waterway.drain" color="181,209,209" fill="0" layer="-4.00" shape="407.672477,521.249767 420.509133,506.243885"/>
    <poly id="374083711" type="waterway.drain" color="181,209,209" fill="0" layer="-4.00" shape="534.216569,509.020273 723.700636,544.954861"/>
    <poly id="374083712" type="waterway.drain" color="181,209,209" fill="0" layer="-4.00" shape="509.140737,506.937160 534.216569,509.020273"/>
    <poly id="374083713" type="waterway.drain" color="181,209,209" fill="0" layer="-4.00" shape="372.158108,521.698121 407.672477,521.249767"/>
    <poly id="374083741" type="waterway.drain" color="181,209,209" fill="0" layer="-4.00" shape="475.038817,502.631318 509.140737,506.937160"/>
    <poly id="374083742" type="waterway.drain" color="181,209,209" fill="0" layer="-4.00" shape="464.731510,501.334963 475.038817,502.631318"/>
    <poly id="374083983" type="amenity.parking" color="184,184,179" fill="1" layer="-1.00" shape="473.088442,618.907948 516.211671,617.924188 517.515172,640.840489 535.133355,640.604959 533.321701,606.656797 515.629187,576.743130 474.280301,575.186348 473.088442,618.907948"/>
    <poly id="374086725" type="landuse.retail" color="194,194,130" fill="1" layer="-3.00" shape="972.613846,836.947598 930.105815,812.607310 972.672058,716.782726 988.458430,696.074779 1039.635947,727.726425 1018.133444,762.405790 997.189290,786.608940 972.613846,836.947598"/>
    <poly id="374094371" type="building.yes" color="255,230,230" fill="1" layer="-1.00" shape="758.444896,278.518035 763.027102,278.595096 773.087327,276.162359 773.144286,266.039039 770.010512,260.101495 760.056420,259.945533 758.444896,278.518035"/>
    <poly id="374094373" type="landuse.military" color="153,153,92" fill="1" layer="-3.00" shape="781.819779,337.576200 746.115700,300.052807 752.109832,286.070967 754.303806,275.288795 754.362200,250.229240 757.676880,226.261532 773.754133,190.474141 793.811584,198.331977 807.289881,232.572917 836.233528,269.283968 824.096967,284.512779 781.819779,337.576200"/>
    <poly id="374094374" type="building.yes" color="255,230,230" fill="1" layer="-1.00" shape="774.204491,326.538822 782.374542,333.384281 789.746608,324.705252 781.576556,317.859793 774.204491,326.538822"/>
    <poly id="374094375" type="building.yes" color="255,230,230" fill="1" layer="-1.00" shape="799.719150,326.487656 794.546583,322.016853 818.980545,294.126434 833.310842,277.763157 835.697372,275.035940 840.869942,279.506744 799.719150,326.487656"/>
    <poly id="374094377" type="building.yes" color="255,230,230" fill="1" layer="-1.00" shape="768.470286,291.032521 760.740463,290.959188 760.829138,281.544031 768.558962,281.617364 768.470286,291.032521"/>