<?xml version="1.0" encoding="UTF-8"?>

<!-- generated on 2022-03-13 13:34:51 by Eclipse SUMO netedit Version 1.11.0
<configuration xmlns:xsi="http://www.w3.org/2001/XMLSchema-instance" xsi:noNamespaceSchemaLocation="http://sumo.dlr.de/xsd/netconvertConfiguration.xsd">

    <input>
        <sumo-net-file value="/home/veins/Documents/V2X-VANET/osm.net.xml"/>
    </input>

    <output>
        <output-file value="/home/veins/Documents/V2X-VANET/osm.net.xml"/>
        <output.street-names value="true"/>
    </output>

    <processing>
        <geometry.min-radius.fix.railways value="false"/>
        <geometry.max-grade.fix value="false"/>
        <offset.disable-normalization value="true"/>
        <lefthand value="false"/>
    </processing>

    <junctions>
        <no-turnarounds value="true"/>
        <junctions.corner-detail value="5"/>
        <junctions.limit-turn-speed value="5.5"/>
        <rectangular-lane-cut value="false"/>
    </junctions>

    <pedestrian>
        <walkingareas value="false"/>
    </pedestrian>

    <report>
        <aggregate-warnings value="5"/>
    </report>

</configuration>
-->

<net version="1.9" junctionCornerDetail="5" limitTurnSpeed="5.50" xmlns:xsi="http://www.w3.org/2001/XMLSchema-instance" xsi:noNamespaceSchemaLocation="http://sumo.dlr.de/xsd/net_file.xsd">

    <location netOffset="-776579.24,-338881.04" convBoundary="0.00,0.00,1518.26,1694.09" origBoundary="101.439834,2.973977,101.619476,3.145025" projParameter="+proj=utm +zone=47 +ellps=WGS84 +datum=WGS84 +units=m +no_defs"/>

    <type id="highway.bridleway" priority="1" numLanes="1" speed="2.78" allow="pedestrian" oneway="1" width="2.00"/>
    <type id="highway.bus_guideway" priority="1" numLanes="1" speed="27.78" allow="bus" oneway="1"/>
    <type id="highway.cycleway" priority="1" numLanes="1" speed="8.33" allow="bicycle" oneway="0" width="1.00"/>
    <type id="highway.footway" priority="1" numLanes="1" speed="2.78" allow="pedestrian" oneway="1" width="2.00"/>
    <type id="highway.ford" priority="1" numLanes="1" speed="2.78" allow="army" oneway="0"/>
    <type id="highway.living_street" priority="2" numLanes="1" speed="2.78" disallow="tram rail_urban rail rail_electric rail_fast ship" oneway="0"/>
    <type id="highway.motorway" priority="14" numLanes="2" speed="39.44" allow="private emergency authority army vip passenger hov taxi bus coach delivery truck trailer motorcycle evehicle custom1 custom2" oneway="1"/>
    <type id="highway.motorway_link" priority="9" numLanes="1" speed="22.22" allow="private emergency authority army vip passenger hov taxi bus coach delivery truck trailer motorcycle evehicle custom1 custom2" oneway="1"/>
    <type id="highway.path" priority="1" numLanes="1" speed="2.78" allow="pedestrian bicycle" oneway="0" width="2.00"/>
    <type id="highway.pedestrian" priority="1" numLanes="1" speed="2.78" allow="pedestrian" oneway="1" width="2.00"/>
    <type id="highway.primary" priority="12" numLanes="2" speed="27.78" disallow="tram rail_urban rail rail_electric rail_fast ship" oneway="0"/>
    <type id="highway.primary_link" priority="7" numLanes="1" speed="22.22" disallow="tram rail_urban rail rail_electric rail_fast ship" oneway="0"/>
    <type id="highway.raceway" priority="15" numLanes="2" speed="83.33" allow="vip" oneway="0"/>
    <type id="highway.residential" priority="3" numLanes="1" speed="13.89" disallow="tram rail_urban rail rail_electric rail_fast ship" oneway="0"/>
    <type id="highway.secondary" priority="11" numLanes="1" speed="27.78" disallow="tram rail_urban rail rail_electric rail_fast ship" oneway="0"/>
    <type id="highway.secondary_link" priority="6" numLanes="1" speed="22.22" disallow="tram rail_urban rail rail_electric rail_fast ship" oneway="0"/>
    <type id="highway.service" priority="1" numLanes="1" speed="5.56" allow="pedestrian delivery bicycle" oneway="0"/>
    <type id="highway.stairs" priority="1" numLanes="1" speed="1.39" allow="pedestrian" oneway="1" width="2.00"/>
    <type id="highway.step" priority="1" numLanes="1" speed="1.39" allow="pedestrian" oneway="1" width="2.00"/>
    <type id="highway.steps" priority="1" numLanes="1" speed="1.39" allow="pedestrian" oneway="1" width="2.00"/>
    <type id="highway.tertiary" priority="10" numLanes="1" speed="22.22" disallow="tram rail_urban rail rail_electric rail_fast ship" oneway="0"/>
    <type id="highway.tertiary_link" priority="5" numLanes="1" speed="22.22" disallow="tram rail_urban rail rail_electric rail_fast ship" oneway="0"/>
    <type id="highway.track" priority="1" numLanes="1" speed="5.56" allow="pedestrian motorcycle moped bicycle" oneway="0"/>
    <type id="highway.trunk" priority="13" numLanes="2" speed="27.78" disallow="pedestrian bicycle tram rail_urban rail rail_electric rail_fast ship" oneway="0"/>
    <type id="highway.trunk_link" priority="8" numLanes="1" speed="22.22" disallow="pedestrian bicycle tram rail_urban rail rail_electric rail_fast ship" oneway="0"/>
    <type id="highway.unclassified" priority="4" numLanes="1" speed="13.89" disallow="tram rail_urban rail rail_electric rail_fast ship" oneway="0"/>
    <type id="highway.unsurfaced" priority="1" numLanes="1" speed="8.33" disallow="tram rail_urban rail rail_electric rail_fast ship" oneway="0"/>
    <type id="railway.highspeed" priority="21" numLanes="1" speed="69.44" allow="rail_fast" oneway="1"/>
    <type id="railway.light_rail" priority="19" numLanes="1" speed="27.78" allow="rail_urban" oneway="1"/>
    <type id="railway.preserved" priority="16" numLanes="1" speed="27.78" allow="rail" oneway="1"/>
    <type id="railway.rail" priority="20" numLanes="1" speed="44.44" allow="rail" oneway="1"/>
    <type id="railway.subway" priority="18" numLanes="1" speed="27.78" allow="rail_urban" oneway="1"/>
    <type id="railway.tram" priority="17" numLanes="1" speed="13.89" allow="tram" oneway="1"/>

    <edge id=":1712648532_0" function="internal">
        <lane id=":1712648532_0_0" index="0" disallow="tram rail_urban rail rail_electric rail_fast ship" speed="10.06" length="10.87" shape="517.76,502.57 516.99,500.87 515.03,498.01 512.91,495.20 511.67,493.60"/>
    </edge>
    <edge id=":1712648532_1" function="internal">
        <lane id=":1712648532_1_0" index="0" disallow="tram rail_urban rail rail_electric rail_fast ship" speed="7.84" length="6.35" shape="520.07,493.54 518.02,493.37 516.35,492.99 515.08,492.41 514.19,491.63"/>
    </edge>
    <edge id=":1712648544_0" function="internal">
        <lane id=":1712648544_0_0" index="0" disallow="tram rail_urban rail rail_electric rail_fast ship" speed="11.68" length="7.12" shape="519.57,517.71 518.94,515.68 518.50,514.24 518.41,512.81 518.86,510.81"/>
    </edge>
    <edge id=":1712648544_1" function="internal">
        <lane id=":1712648544_1_0" index="0" disallow="tram rail_urban rail rail_electric rail_fast ship" speed="13.74" length="11.50" shape="511.77,520.26 513.83,518.09 514.64,515.90 515.02,513.29 515.81,509.84"/>
    </edge>
    <edge id=":1712648547_0" function="internal">
        <lane id=":1712648547_0_0" index="0" disallow="tram rail_urban rail rail_electric rail_fast ship" speed="11.74" length="8.97" shape="420.56,483.63 418.03,484.44 416.30,485.16 414.86,486.29 413.23,488.33"/>
    </edge>
    <edge id=":1712648547_1" function="internal">
        <lane id=":1712648547_1_0" index="0" allow="pedestrian delivery bicycle" speed="13.89" length="8.73" shape="417.57,480.75 413.23,488.33"/>
    </edge>
    <edge id=":1712659858_0" function="internal">
        <lane id=":1712659858_0_0" index="0" allow="pedestrian delivery bicycle" speed="5.56" length="9.25" shape="417.21,444.91 419.24,446.20 421.32,446.59 423.43,446.11 425.59,444.73"/>
    </edge>
    <edge id=":1712659858_1" function="internal">
        <lane id=":1712659858_1_0" index="0" allow="pedestrian delivery bicycle" speed="5.56" length="7.28" shape="417.21,444.91 419.77,447.04 421.61,448.39 422.71,448.96 423.08,448.76"/>
    </edge>
    <edge id=":1712659858_2" function="internal">
        <lane id=":1712659858_2_0" index="0" allow="pedestrian delivery bicycle" speed="5.56" length="7.02" shape="419.88,448.72 420.67,447.77 422.45,446.59 424.38,445.49 425.59,444.73"/>
    </edge>
    <edge id=":1712659858_3" function="internal">
        <lane id=":1712659858_3_0" index="0" allow="pedestrian delivery bicycle" speed="3.65" length="4.67" shape="419.88,448.72 420.70,447.53 421.50,447.14 422.30,447.55 423.08,448.76"/>
    </edge>
    <edge id=":1712659865_0" function="internal">
        <lane id=":1712659865_0_0" index="0" allow="pedestrian delivery bicycle" speed="4.78" length="6.85" shape="423.56,478.06 422.12,476.26 420.91,475.67 419.91,476.31 419.13,478.16"/>
    </edge>
    <edge id=":1712659865_1" function="internal">
        <lane id=":1712659865_1_0" index="0" allow="pedestrian delivery bicycle" speed="5.56" length="9.60" shape="423.56,478.06 421.64,475.35 419.84,473.41 418.16,472.25 416.62,471.87"/>
    </edge>
    <edge id=":1712659865_2" function="internal">
        <lane id=":1712659865_2_0" index="0" allow="pedestrian delivery bicycle" speed="5.56" length="13.27" shape="423.56,478.06 421.81,475.04 420.61,472.12 419.92,469.05 419.72,465.58"/>
    </edge>
    <edge id=":1712659865_3" function="internal">
        <lane id=":1712659865_3_0" index="0" allow="pedestrian delivery bicycle" speed="5.56" length="13.18" shape="422.92,465.61 422.49,469.00 421.49,471.95 420.27,474.87 419.13,478.16"/>
    </edge>
    <edge id=":1712659865_4" function="internal">
        <lane id=":1712659865_4_0" index="0" allow="pedestrian delivery bicycle" speed="5.56" length="10.09" shape="422.92,465.61 422.50,468.34 421.31,470.29 419.35,471.47 416.62,471.87"/>
    </edge>
    <edge id=":1712659865_5" function="internal">
        <lane id=":1712659865_5_0" index="0" allow="pedestrian delivery bicycle" speed="3.65" length="4.67" shape="422.92,465.61 422.10,466.80 421.30,467.19 420.50,466.79 419.72,465.58"/>
    </edge>
    <edge id=":1712659865_6" function="internal">
        <lane id=":1712659865_6_0" index="0" allow="pedestrian delivery bicycle" speed="5.06" length="4.98" shape="416.61,468.67 417.96,468.47 418.92,467.89 419.51,466.93 419.72,465.58"/>
    </edge>
    <edge id=":1712659865_7" function="internal">
        <lane id=":1712659865_7_0" index="0" allow="pedestrian delivery bicycle" speed="5.56" length="11.46" shape="416.61,468.67 418.68,469.25 419.79,471.03 419.94,474.00 419.13,478.16"/>
    </edge>
    <edge id=":1712659865_8" function="internal">
        <lane id=":1712659865_8_0" index="0" allow="pedestrian delivery bicycle" speed="3.65" length="4.67" shape="416.61,468.67 417.81,469.46 418.21,470.26 417.82,471.06 416.62,471.87"/>
    </edge>
    <edge id=":1712659867_0" function="internal">
        <lane id=":1712659867_0_0" index="0" allow="pedestrian delivery bicycle" speed="5.56" length="7.77" shape="405.84,471.91 404.48,471.52 403.50,470.34 402.92,468.37 402.73,465.61"/>
    </edge>
    <edge id=":1712659867_1" function="internal">
        <lane id=":1712659867_1_0" index="0" allow="pedestrian delivery bicycle" speed="3.65" length="4.67" shape="405.84,471.91 404.64,471.11 404.24,470.31 404.64,469.51 405.83,468.71"/>
    </edge>
    <edge id=":1712659867_2" function="internal">
        <lane id=":1712659867_2_0" index="0" allow="pedestrian delivery bicycle" speed="5.56" length="9.33" shape="402.52,474.94 402.73,465.61"/>
    </edge>
    <edge id=":1712659867_3" function="internal">
        <lane id=":1712659867_3_0" index="0" allow="pedestrian delivery bicycle" speed="5.56" length="7.74" shape="402.52,474.94 402.83,472.22 403.48,470.27 404.48,469.10 405.83,468.71"/>
    </edge>
    <edge id=":1712659881_0" function="internal">
        <lane id=":1712659881_0_0" index="0" allow="pedestrian delivery bicycle" speed="5.56" length="7.13" shape="431.68,439.98 430.69,439.18 429.45,437.41 428.29,435.48 427.56,434.23"/>
    </edge>
    <edge id=":1712659881_1" function="internal">
        <lane id=":1712659881_1_0" index="0" allow="pedestrian delivery bicycle" speed="3.65" length="4.67" shape="431.68,439.98 430.50,439.14 430.13,438.33 430.55,437.54 431.77,436.78"/>
    </edge>
    <edge id=":1712659881_2" function="internal">
        <lane id=":1712659881_2_0" index="0" allow="pedestrian delivery bicycle" speed="5.56" length="8.79" shape="427.77,442.59 428.63,440.41 428.88,438.29 428.53,436.23 427.56,434.23"/>
    </edge>
    <edge id=":1712659881_3" function="internal">
        <lane id=":1712659881_3_0" index="0" allow="pedestrian delivery bicycle" speed="5.56" length="7.13" shape="427.77,442.59 428.45,441.30 429.57,439.34 430.79,437.55 431.77,436.78"/>
    </edge>
    <edge id=":1712667769_0" function="internal">
        <lane id=":1712667769_0_0" index="0" allow="pedestrian delivery bicycle" speed="5.56" length="6.64" shape="490.85,352.71 489.40,351.41 488.24,350.74 486.96,350.22 485.18,349.37"/>
    </edge>
    <edge id=":1712667769_1" function="internal">
        <lane id=":1712667769_1_0" index="0" allow="pedestrian delivery bicycle" speed="3.65" length="2.23" shape="490.85,352.71 490.58,351.29 490.84,350.55"/>
    </edge>
    <edge id=":1712667769_4" function="internal">
        <lane id=":1712667769_4_0" index="0" allow="pedestrian delivery bicycle" speed="3.65" length="2.45" shape="490.84,350.55 490.88,350.45 491.73,350.18 493.14,350.48"/>
    </edge>
    <edge id=":1712667769_2" function="internal">
        <lane id=":1712667769_2_0" index="0" allow="pedestrian delivery bicycle" speed="5.56" length="7.60" shape="486.71,346.56 488.74,347.55 490.18,348.18 491.50,348.98 493.14,350.48"/>
    </edge>
    <edge id=":1712667769_3" function="internal">
        <lane id=":1712667769_3_0" index="0" allow="pedestrian delivery bicycle" speed="3.65" length="2.34" shape="486.71,346.56 487.38,347.83 487.35,348.73"/>
    </edge>
    <edge id=":1712667769_5" function="internal">
        <lane id=":1712667769_5_0" index="0" allow="pedestrian delivery bicycle" speed="3.65" length="2.34" shape="487.35,348.73 486.61,349.24 485.18,349.37"/>
    </edge>
    <edge id=":1712667773_0" function="internal">
        <lane id=":1712667773_0_0" index="0" allow="pedestrian delivery bicycle" speed="3.65" length="4.67" shape="496.17,325.63 496.79,326.93 496.73,327.83 495.97,328.31 494.53,328.39"/>
    </edge>
    <edge id=":1712667778_0" function="internal">
        <lane id=":1712667778_0_0" index="0" disallow="tram rail_urban rail rail_electric rail_fast ship" speed="8.33" length="9.13" shape="688.36,346.84 680.92,352.15"/>
    </edge>
    <edge id=":1712667778_1" function="internal">
        <lane id=":1712667778_1_0" index="0" allow="pedestrian delivery bicycle" speed="6.86" length="4.89" shape="688.36,346.84 685.85,348.06 683.75,348.17"/>
    </edge>
    <edge id=":1712667778_2" function="internal">
        <lane id=":1712667778_2_0" index="0" disallow="tram rail_urban rail rail_electric rail_fast ship" speed="3.65" length="2.34" shape="688.36,346.84 686.92,346.85 686.14,346.41"/>
    </edge>
    <edge id=":1712667778_9" function="internal">
        <lane id=":1712667778_9_0" index="0" allow="pedestrian delivery bicycle" speed="6.86" length="5.27" shape="683.75,348.17 683.56,348.18 681.48,347.21 679.62,345.15"/>
    </edge>
    <edge id=":1712667778_10" function="internal">
        <lane id=":1712667778_10_0" index="0" disallow="tram rail_urban rail rail_electric rail_fast ship" speed="3.65" length="2.34" shape="686.14,346.41 686.02,345.52 686.57,344.19"/>
    </edge>
    <edge id=":1712667778_3" function="internal">
        <lane id=":1712667778_3_0" index="0" allow="pedestrian delivery bicycle" speed="5.04" length="5.00" shape="682.27,343.35 683.19,344.37 684.21,344.85 685.34,344.79 686.57,344.19"/>
    </edge>
    <edge id=":1712667778_4" function="internal">
        <lane id=":1712667778_4_0" index="0" allow="pedestrian delivery bicycle" speed="6.95" length="10.03" shape="682.27,343.35 683.49,345.83 683.67,348.13 682.82,350.23 680.92,352.15"/>
    </edge>
    <edge id=":1712667778_5" function="internal">
        <lane id=":1712667778_5_0" index="0" allow="pedestrian delivery bicycle" speed="3.65" length="4.67" shape="682.27,343.35 682.28,344.80 681.84,345.58 680.95,345.69 679.62,345.15"/>
    </edge>
    <edge id=":1712667778_6" function="internal">
        <lane id=":1712667778_6_0" index="0" allow="pedestrian delivery bicycle" speed="5.16" length="5.07" shape="678.99,349.60 679.93,348.64 680.35,347.58 680.24,346.41 679.62,345.15"/>
    </edge>
    <edge id=":1712667778_7" function="internal">
        <lane id=":1712667778_7_0" index="0" disallow="tram rail_urban rail rail_electric rail_fast ship" speed="8.33" length="9.31" shape="678.99,349.60 686.57,344.19"/>
    </edge>
    <edge id=":1712667778_8" function="internal">
        <lane id=":1712667778_8_0" index="0" disallow="tram rail_urban rail rail_electric rail_fast ship" speed="3.65" length="2.34" shape="678.99,349.60 680.43,349.51 681.23,349.91"/>
    </edge>
    <edge id=":1712667778_11" function="internal">
        <lane id=":1712667778_11_0" index="0" disallow="tram rail_urban rail rail_electric rail_fast ship" speed="3.65" length="2.34" shape="681.23,349.91 681.40,350.79 680.92,352.15"/>
    </edge>
    <edge id=":1712667807_0" function="internal">
        <lane id=":1712667807_0_0" index="0" disallow="tram rail_urban rail rail_electric rail_fast ship" speed="8.33" length="8.17" shape="500.81,354.13 499.03,355.78 497.87,356.97 496.86,358.29 495.54,360.32"/>
    </edge>
    <edge id=":1712667807_1" function="internal">
        <lane id=":1712667807_1_0" index="0" allow="pedestrian delivery bicycle" speed="6.89" length="4.85" shape="500.81,354.13 498.55,355.68 496.49,356.12"/>
    </edge>
    <edge id=":1712667807_2" function="internal">
        <lane id=":1712667807_2_0" index="0" disallow="tram rail_urban rail rail_electric rail_fast ship" speed="3.65" length="2.34" shape="500.81,354.13 499.39,354.36 498.55,354.04"/>
    </edge>
    <edge id=":1712667807_9" function="internal">
        <lane id=":1712667807_9_0" index="0" allow="pedestrian delivery bicycle" speed="6.89" length="5.18" shape="496.49,356.12 496.33,356.15 494.13,355.55 491.97,353.87"/>
    </edge>
    <edge id=":1712667807_10" function="internal">
        <lane id=":1712667807_10_0" index="0" disallow="tram rail_urban rail rail_electric rail_fast ship" speed="3.65" length="2.34" shape="498.55,354.04 498.30,353.18 498.65,351.78"/>
    </edge>
    <edge id=":1712667807_3" function="internal">
        <lane id=":1712667807_3_0" index="0" allow="pedestrian delivery bicycle" speed="5.07" length="4.97" shape="494.27,351.65 495.34,352.48 496.43,352.77 497.53,352.54 498.65,351.78"/>
    </edge>
    <edge id=":1712667807_4" function="internal">
        <lane id=":1712667807_4_0" index="0" allow="pedestrian delivery bicycle" speed="6.95" length="9.55" shape="494.27,351.65 495.88,353.77 496.63,355.92 496.52,358.10 495.54,360.32"/>
    </edge>
    <edge id=":1712667807_5" function="internal">
        <lane id=":1712667807_5_0" index="0" allow="pedestrian delivery bicycle" speed="3.65" length="4.67" shape="494.27,351.65 494.53,353.06 494.23,353.91 493.38,354.18 491.97,353.87"/>
    </edge>
    <edge id=":1712667807_6" function="internal">
        <lane id=":1712667807_6_0" index="0" allow="pedestrian delivery bicycle" speed="5.60" length="5.24" shape="492.84,358.61 493.33,357.44 493.36,356.26 492.90,355.07 491.97,353.87"/>
    </edge>
    <edge id=":1712667807_7" function="internal">
        <lane id=":1712667807_7_0" index="0" disallow="tram rail_urban rail rail_electric rail_fast ship" speed="8.33" length="9.02" shape="492.84,358.61 494.29,356.37 495.40,354.91 496.68,353.59 498.65,351.78"/>
    </edge>
    <edge id=":1712667807_8" function="internal">
        <lane id=":1712667807_8_0" index="0" disallow="tram rail_urban rail rail_electric rail_fast ship" speed="3.65" length="2.34" shape="492.84,358.61 494.15,358.02 495.04,358.11"/>
    </edge>
    <edge id=":1712667807_11" function="internal">
        <lane id=":1712667807_11_0" index="0" disallow="tram rail_urban rail rail_electric rail_fast ship" speed="3.65" length="2.34" shape="495.04,358.11 495.51,358.88 495.54,360.32"/>
    </edge>
    <edge id=":1712667808_0" function="internal">
        <lane id=":1712667808_0_0" index="0" disallow="tram rail_urban rail rail_electric rail_fast ship" speed="5.93" length="12.36" shape="503.96,473.05 501.01,469.24 498.81,467.75 497.36,468.58 496.66,471.72"/>
    </edge>
    <edge id=":1712667808_1" function="internal">
        <lane id=":1712667808_1_0" index="0" disallow="tram rail_urban rail rail_electric rail_fast ship" speed="15.27" length="13.53" shape="503.96,473.05 501.71,470.32 499.34,468.04 497.14,465.66 495.40,462.67"/>
    </edge>
    <edge id=":1712667808_2" function="internal">
        <lane id=":1712667808_2_0" index="0" disallow="tram rail_urban rail rail_electric rail_fast ship" speed="15.27" length="10.69" shape="498.37,461.47 498.95,464.33 498.36,466.47 497.35,468.67 496.66,471.72"/>
    </edge>
    <edge id=":1712667808_3" function="internal">
        <lane id=":1712667808_3_0" index="0" disallow="tram rail_urban rail rail_electric rail_fast ship" speed="3.65" length="2.08" shape="498.37,461.47 498.08,462.88 497.65,463.36"/>
    </edge>
    <edge id=":1712667808_4" function="internal">
        <lane id=":1712667808_4_0" index="0" disallow="tram rail_urban rail rail_electric rail_fast ship" speed="3.65" length="2.59" shape="497.65,463.36 497.48,463.55 496.59,463.48 495.40,462.67"/>
    </edge>
    <edge id=":1712667839_0" function="internal">
        <lane id=":1712667839_0_0" index="0" disallow="tram rail_urban rail rail_electric rail_fast ship" speed="22.22" length="4.66" shape="489.48,489.21 488.11,489.38 487.17,489.47 486.22,489.49 484.84,489.43"/>
    </edge>
    <edge id=":1712667839_1" function="internal">
        <lane id=":1712667839_1_0" index="0" disallow="tram rail_urban rail rail_electric rail_fast ship" speed="7.49" length="4.05" shape="488.75,485.10 487.78,485.79 487.03,486.14 486.20,486.26 485.01,486.23"/>
    </edge>
    <edge id=":1712672093_0" function="internal">
        <lane id=":1712672093_0_0" index="0" disallow="tram rail_urban rail rail_electric rail_fast ship" speed="13.89" length="12.43" shape="548.82,500.07 545.59,499.20 542.92,498.14 540.24,497.08 537.01,496.23"/>
    </edge>
    <edge id=":1712672093_1" function="internal">
        <lane id=":1712672093_1_0" index="0" disallow="tram rail_urban rail rail_electric rail_fast ship" speed="3.65" length="1.95" shape="548.82,500.07 547.79,499.06 547.65,498.57"/>
    </edge>
    <edge id=":1712672093_4" function="internal">
        <lane id=":1712672093_4_0" index="0" disallow="tram rail_urban rail rail_electric rail_fast ship" speed="3.65" length="2.72" shape="547.65,498.57 547.54,498.20 548.09,497.49 549.42,496.92"/>
    </edge>
    <edge id=":1712672093_2" function="internal">
        <lane id=":1712672093_2_0" index="0" disallow="tram rail_urban rail rail_electric rail_fast ship" speed="5.69" length="12.50" shape="537.13,501.02 541.33,499.72 542.71,498.49 541.27,497.32 537.01,496.23"/>
    </edge>
    <edge id=":1712672093_3" function="internal">
        <lane id=":1712672093_3_0" index="0" disallow="tram rail_urban rail rail_electric rail_fast ship" speed="13.89" length="13.16" shape="537.13,501.02 540.41,499.76 543.25,498.19 546.11,497.01 549.42,496.92"/>
    </edge>
    <edge id=":1712672096_0" function="internal">
        <lane id=":1712672096_0_0" index="0" disallow="tram rail_urban rail rail_electric rail_fast ship" speed="15.27" length="9.26" shape="526.05,539.95 525.35,537.30 525.10,535.41 524.77,533.56 523.82,531.01"/>
    </edge>
    <edge id=":1712672096_1" function="internal">
        <lane id=":1712672096_1_0" index="0" disallow="tram rail_urban rail rail_electric rail_fast ship" speed="4.78" length="8.52" shape="521.69,532.79 523.90,534.80 524.99,535.17 524.96,533.91 523.82,531.01"/>
    </edge>
    <edge id=":1712672096_2" function="internal">
        <lane id=":1712672096_2_0" index="0" disallow="tram rail_urban rail rail_electric rail_fast ship" speed="15.27" length="9.91" shape="521.69,532.79 524.05,534.56 526.07,535.44 527.75,536.53 529.08,538.93"/>
    </edge>
    <edge id=":1712675289_0" function="internal">
        <lane id=":1712675289_0_0" index="0" allow="pedestrian delivery bicycle" speed="4.70" length="5.70" shape="534.92,619.87 533.34,619.26 532.19,619.40 531.47,620.31 531.17,621.97"/>
    </edge>
    <edge id=":1712675289_1" function="internal">
        <lane id=":1712675289_1_0" index="0" allow="pedestrian delivery bicycle" speed="5.56" length="11.71" shape="534.92,619.87 532.05,618.36 529.61,617.40 527.06,616.86 523.84,616.62"/>
    </edge>
    <edge id=":1712675289_2" function="internal">
        <lane id=":1712675289_2_0" index="0" allow="pedestrian delivery bicycle" speed="5.56" length="13.30" shape="534.92,619.87 531.98,617.97 529.66,615.81 527.89,613.20 526.59,609.97"/>
    </edge>
    <edge id=":1712675289_3" function="internal">
        <lane id=":1712675289_3_0" index="0" allow="pedestrian delivery bicycle" speed="3.65" length="4.67" shape="534.92,619.87 534.26,618.59 534.30,617.70 535.04,617.19 536.48,617.08"/>
    </edge>
    <edge id=":1712675289_4" function="internal">
        <lane id=":1712675289_4_0" index="0" allow="pedestrian delivery bicycle" speed="5.56" length="10.96" shape="529.65,609.05 530.72,611.98 531.97,613.95 533.77,615.47 536.48,617.08"/>
    </edge>
    <edge id=":1712675289_5" function="internal">
        <lane id=":1712675289_5_0" index="0" allow="pedestrian delivery bicycle" speed="5.56" length="13.09" shape="529.65,609.05 530.53,612.38 531.03,615.43 531.22,618.52 531.17,621.97"/>
    </edge>
    <edge id=":1712675289_6" function="internal">
        <lane id=":1712675289_6_0" index="0" allow="pedestrian delivery bicycle" speed="5.56" length="11.97" shape="529.65,609.05 530.18,612.46 529.39,614.86 527.27,616.25 523.84,616.62"/>
    </edge>
    <edge id=":1712675289_7" function="internal">
        <lane id=":1712675289_7_0" index="0" allow="pedestrian delivery bicycle" speed="3.65" length="4.67" shape="529.65,609.05 529.23,610.43 528.59,611.04 527.70,610.89 526.59,609.97"/>
    </edge>
    <edge id=":1712675289_8" function="internal">
        <lane id=":1712675289_8_0" index="0" allow="pedestrian delivery bicycle" speed="4.77" length="5.45" shape="523.94,613.42 525.51,613.25 526.47,612.62 526.83,611.53 526.59,609.97"/>
    </edge>
    <edge id=":1712675289_9" function="internal">
        <lane id=":1712675289_9_0" index="0" allow="pedestrian delivery bicycle" speed="5.56" length="13.20" shape="523.94,613.42 527.39,613.72 530.44,614.40 533.38,615.50 536.48,617.08"/>
    </edge>
    <edge id=":1712675289_10" function="internal">
        <lane id=":1712675289_10_0" index="0" allow="pedestrian delivery bicycle" speed="5.56" length="12.79" shape="523.94,613.42 527.23,614.05 529.54,615.69 530.85,618.33 531.17,621.97"/>
    </edge>
    <edge id=":1712675289_11" function="internal">
        <lane id=":1712675289_11_0" index="0" allow="pedestrian delivery bicycle" speed="3.65" length="4.67" shape="523.94,613.42 525.11,614.26 525.49,615.08 525.06,615.86 523.84,616.62"/>
    </edge>
    <edge id=":1712675289_12" function="internal">
        <lane id=":1712675289_12_0" index="0" allow="pedestrian delivery bicycle" speed="5.56" length="7.60" shape="527.97,621.84 527.79,619.61 527.04,618.00 525.72,617.00 523.84,616.62"/>
    </edge>
    <edge id=":1712675289_13" function="internal">
        <lane id=":1712675289_13_0" index="0" allow="pedestrian delivery bicycle" speed="5.56" length="12.02" shape="527.97,621.84 528.05,618.55 527.90,615.83 527.45,613.14 526.59,609.97"/>
    </edge>
    <edge id=":1712675289_14" function="internal">
        <lane id=":1712675289_14_0" index="0" allow="pedestrian delivery bicycle" speed="5.56" length="12.94" shape="527.97,621.84 528.65,618.06 530.29,616.01 532.90,615.68 536.48,617.08"/>
    </edge>
    <edge id=":1712675289_15" function="internal">
        <lane id=":1712675289_15_0" index="0" allow="pedestrian delivery bicycle" speed="3.65" length="4.67" shape="527.97,621.84 528.82,620.68 529.64,620.31 530.42,620.74 531.17,621.97"/>
    </edge>
    <edge id=":1712675291_0" function="internal">
        <lane id=":1712675291_0_0" index="0" allow="pedestrian delivery bicycle" speed="3.65" length="4.67" shape="469.92,682.15 469.09,683.33 468.28,683.71 467.49,683.29 466.72,682.07"/>
    </edge>
    <edge id=":1712675292_0" function="internal">
        <lane id=":1712675292_0_0" index="0" allow="pedestrian delivery bicycle" speed="5.05" length="5.05" shape="474.60,614.99 473.23,615.14 472.24,615.70 471.64,616.67 471.41,618.05"/>
    </edge>
    <edge id=":1712675292_1" function="internal">
        <lane id=":1712675292_1_0" index="0" allow="pedestrian delivery bicycle" speed="5.56" length="9.46" shape="474.60,614.99 465.14,614.84"/>
    </edge>
    <edge id=":1712675292_2" function="internal">
        <lane id=":1712675292_2_0" index="0" allow="pedestrian delivery bicycle" speed="5.56" length="10.17" shape="474.60,614.99 471.84,614.50 469.90,613.27 468.76,611.27 468.43,608.52"/>
    </edge>
    <edge id=":1712675292_3" function="internal">
        <lane id=":1712675292_3_0" index="0" allow="pedestrian delivery bicycle" speed="3.65" length="4.67" shape="474.60,614.99 473.42,614.15 473.05,613.33 473.48,612.55 474.70,611.79"/>
    </edge>
    <edge id=":1712675292_4" function="internal">
        <lane id=":1712675292_4_0" index="0" allow="pedestrian delivery bicycle" speed="5.07" length="5.04" shape="471.63,608.60 471.80,609.95 472.36,610.94 473.33,611.55 474.70,611.79"/>
    </edge>
    <edge id=":1712675292_5" function="internal">
        <lane id=":1712675292_5_0" index="0" allow="pedestrian delivery bicycle" speed="5.56" length="9.45" shape="471.63,608.60 471.41,618.05"/>
    </edge>