<?xml version="1.0" encoding="UTF-8"?>

<!-- generated on Fri Mar  4 14:38:42 2022 by Eclipse SUMO duarouter Version 1.8.0
<configuration xmlns:xsi="http://www.w3.org/2001/XMLSchema-instance" xsi:noNamespaceSchemaLocation="http://sumo.dlr.de/xsd/duarouterConfiguration.xsd">

    <input>
        <net-file value="/home/veins/src/sumo-1.8.0/tools/2022-03-04-14-38-38/osm.net.xml"/>
        <route-files value="/home/veins/src/sumo-1.8.0/tools/2022-03-04-14-38-38/osm.passenger.trips.xml"/>
    </input>

    <output>
        <output-file value="/home/veins/src/sumo-1.8.0/tools/2022-03-04-14-38-38/osm.passenger.trips.xml.tmp"/>
        <write-trips value="true"/>
    </output>

    <time>
        <begin value="0"/>
        <end value="3600"/>
    </time>

    <report>
        <no-warnings value="true"/>
        <ignore-errors value="true"/>
        <no-step-log value="true"/>
    </report>

</configuration>
-->

<routes xmlns:xsi="http://www.w3.org/2001/XMLSchema-instance" xsi:noNamespaceSchemaLocation="http://sumo.dlr.de/xsd/routes_file.xsd">
    <vType id="veh_passenger" vClass="passenger"/>
    <vType id="emergency" vClass="emergency" guiShape="emergency"/>
    <trip id="veh14" type="emergency" depart="50.94" departLane="best" from="-311525772#0" to="159164659#3"/>
</routes>
